data/network_N/new_load_unbalanced.txt
New Load.1 bus1=8019.1.4 kV=0.23094010767585033 Vminpu=0.1 Vmaxpu=1.9 model=1 kW=2.5 pf=0.9 Phases=1
New Load.2 bus1=8019.2.4 kV=0.23094010767585033 Vminpu=0.1 Vmaxpu=1.9 model=1 kW=3.2 pf=0.9 Phases=1
New Load.3 bus1=8019.3.4 kV=0.23094010767585033 Vminpu=0.1 Vmaxpu=1.9 model=1 kW=2.5 pf=0.9 Phases=1
New Load.4 bus1=7570.1.4 kV=0.23094010767585033 Vminpu=0.1 Vmaxpu=1.9 model=1 kW=6.5 pf=0.9 Phases=1
New Load.5 bus1=7331.1.4 kV=0.23094010767585033 Vminpu=0.1 Vmaxpu=1.9 model=1 kW=2.75 pf=0.9 Phases=1
New Load.6 bus1=7512.2.4 kV=0.23094010767585033 Vminpu=0.1 Vmaxpu=1.9 model=1 kW=0.9 pf=0.9 Phases=1
New Load.7 bus1=8017.2.4 kV=0.23094010767585033 Vminpu=0.1 Vmaxpu=1.9 model=1 kW=5.0 pf=0.9 Phases=1
New Load.8 bus1=7516.3.4 kV=0.23094010767585033 Vminpu=0.1 Vmaxpu=1.9 model=1 kW=4.3 pf=0.9 Phases=1
New Load.9 bus1=8018.3.4 kV=0.23094010767585033 Vminpu=0.1 Vmaxpu=1.9 model=1 kW=2.6 pf=0.9 Phases=1
!New Load.10 bus1=7691.2.4 kV=0.23094010767585033 Vminpu=0.1 Vmaxpu=1.9 model=1 kW=3.8 pf=0.9 Phases=1
New Load.11 bus1=8019.1.4 kV=0.23094010767585033 Vminpu=0.1 Vmaxpu=1.9 model=1 kW=2.25 pf=0.9 Phases=1
New Load.12 bus1=8019.2.4 kV=0.23094010767585033 Vminpu=0.1 Vmaxpu=1.9 model=1 kW=1 pf=0.9 Phases=1
New Load.13 bus1=8019.3.4 kV=0.23094010767585033 Vminpu=0.1 Vmaxpu=1.9 model=1 kW=1.8 pf=0.9 Phases=1
New Load.14 bus1=7426.1.4 kV=0.23094010767585033 Vminpu=0.1 Vmaxpu=1.9 model=1 kW=5.75 pf=0.9 Phases=1
New Load.15 bus1=7759.1.4 kV=0.23094010767585033 Vminpu=0.1 Vmaxpu=1.9 model=1 kW=3.5 pf=0.9 Phases=1
New Load.16 bus1=8055.3.4 kV=0.23094010767585033 Vminpu=0.1 Vmaxpu=1.9 model=1 kW=1 pf=0.9 Phases=1
New Load.17 bus1=8056.1.4 kV=0.23094010767585033 Vminpu=0.1 Vmaxpu=1.9 model=1 kW=6.0 pf=0.9 Phases=1
New Load.18 bus1=7570.1.4 kV=0.23094010767585033 Vminpu=0.1 Vmaxpu=1.9 model=1 kW=2.25 pf=0.9 Phases=1
New Load.19 bus1=7499.2.4 kV=0.23094010767585033 Vminpu=0.1 Vmaxpu=1.9 model=1 kW=2.8 pf=0.9 Phases=1
New Load.20 bus1=7397.3.4 kV=0.23094010767585033 Vminpu=0.1 Vmaxpu=1.9 model=1 kW=2.3 pf=0.9 Phases=1
New Load.21 bus1=7244.3.4 kV=0.23094010767585033 Vminpu=0.1 Vmaxpu=1.9 model=1 kW=4.5 pf=0.9 Phases=1
New Load.22 bus1=6952.1.4 kV=0.23094010767585033 Vminpu=0.1 Vmaxpu=1.9 model=1 kW=8.75 pf=0.9 Phases=1
New Load.23 bus1=8057.3.4 kV=0.23094010767585033 Vminpu=0.1 Vmaxpu=1.9 model=1 kW=1 pf=0.9 Phases=1
New Load.24 bus1=7488.1.4 kV=0.23094010767585033 Vminpu=0.1 Vmaxpu=1.9 model=1 kW=2.5 pf=0.9 Phases=1
New Load.25 bus1=7649.3.4 kV=0.23094010767585033 Vminpu=0.1 Vmaxpu=1.9 model=1 kW=3.9 pf=0.9 Phases=1
New Load.26 bus1=7717.2.4 kV=0.23094010767585033 Vminpu=0.1 Vmaxpu=1.9 model=1 kW=2.3 pf=0.9 Phases=1
New Load.27 bus1=7525.1.4 kV=0.23094010767585033 Vminpu=0.1 Vmaxpu=1.9 model=1 kW=4.25 pf=0.9 Phases=1
New Load.28 bus1=8058.3.4 kV=0.23094010767585033 Vminpu=0.1 Vmaxpu=1.9 model=1 kW=4.2 pf=0.9 Phases=1
New Load.29 bus1=8059.3.4 kV=0.23094010767585033 Vminpu=0.1 Vmaxpu=1.9 model=1 kW=3.2 pf=0.9 Phases=1
New Load.30 bus1=8060.2.4 kV=0.23094010767585033 Vminpu=0.1 Vmaxpu=1.9 model=1 kW=2.3 pf=0.9 Phases=1
New Load.31 bus1=8061.3.4 kV=0.23094010767585033 Vminpu=0.1 Vmaxpu=1.9 model=1 kW=5.0 pf=0.9 Phases=1
New Load.32 bus1=8062.1.4 kV=0.23094010767585033 Vminpu=0.1 Vmaxpu=1.9 model=1 kW=5.25 pf=0.9 Phases=1
New Load.33 bus1=8063.1.4 kV=0.23094010767585033 Vminpu=0.1 Vmaxpu=1.9 model=1 kW=3.25 pf=0.9 Phases=1
New Load.34 bus1=8064.1.4 kV=0.23094010767585033 Vminpu=0.1 Vmaxpu=1.9 model=1 kW=2.5 pf=0.9 Phases=1
New Load.35 bus1=8065.1.4 kV=0.23094010767585033 Vminpu=0.1 Vmaxpu=1.9 model=1 kW=2.5 pf=0.9 Phases=1
New Load.36 bus1=8066.3.4 kV=0.23094010767585033 Vminpu=0.1 Vmaxpu=1.9 model=1 kW=4.2 pf=0.9 Phases=1
New Load.37 bus1=8067.2.4 kV=0.23094010767585033 Vminpu=0.1 Vmaxpu=1.9 model=1 kW=1 pf=0.9 Phases=1
New Load.38 bus1=8068.2.4 kV=0.23094010767585033 Vminpu=0.1 Vmaxpu=1.9 model=1 kW=2.1 pf=0.9 Phases=1
New Load.39 bus1=8069.2.4 kV=0.23094010767585033 Vminpu=0.1 Vmaxpu=1.9 model=1 kW=3.3 pf=0.9 Phases=1
New Load.40 bus1=8070.2.4 kV=0.23094010767585033 Vminpu=0.1 Vmaxpu=1.9 model=1 kW=1.5 pf=0.9 Phases=1
New Load.41 bus1=8071.2.4 kV=0.23094010767585033 Vminpu=0.1 Vmaxpu=1.9 model=1 kW=4.8 pf=0.9 Phases=1
New Load.42 bus1=8072.2.4 kV=0.23094010767585033 Vminpu=0.1 Vmaxpu=1.9 model=1 kW=1 pf=0.9 Phases=1
New Load.43 bus1=8073.1.4 kV=0.23094010767585033 Vminpu=0.1 Vmaxpu=1.9 model=1 kW=2.0 pf=0.9 Phases=1
New Load.44 bus1=8074.1.4 kV=0.23094010767585033 Vminpu=0.1 Vmaxpu=1.9 model=1 kW=3.75 pf=0.9 Phases=1
New Load.45 bus1=8075.1.4 kV=0.23094010767585033 Vminpu=0.1 Vmaxpu=1.9 model=1 kW=5.5 pf=0.9 Phases=1
New Load.46 bus1=8076.3.4 kV=0.23094010767585033 Vminpu=0.1 Vmaxpu=1.9 model=1 kW=1 pf=0.9 Phases=1
New Load.47 bus1=8173.1.4 kV=0.23094010767585033 Vminpu=0.1 Vmaxpu=1.9 model=1 kW=5.75 pf=0.9 Phases=1
New Load.48 bus1=7747.1.4 kV=0.23094010767585033 Vminpu=0.1 Vmaxpu=1.9 model=1 kW=2.0 pf=0.9 Phases=1
New Load.49 bus1=7513.2.4 kV=0.23094010767585033 Vminpu=0.1 Vmaxpu=1.9 model=1 kW=0.6 pf=0.9 Phases=1
New Load.50 bus1=8185.3.4 kV=0.23094010767585033 Vminpu=0.1 Vmaxpu=1.9 model=1 kW=0.3 pf=0.9 Phases=1
New Load.51 bus1=8211.1.4 kV=0.23094010767585033 Vminpu=0.1 Vmaxpu=1.9 model=1 kW=5.75 pf=0.9 Phases=1
New Load.52 bus1=7322.3.4 kV=0.23094010767585033 Vminpu=0.1 Vmaxpu=1.9 model=1 kW=1 pf=0.9 Phases=1
New Load.53 bus1=8269.3.4 kV=0.23094010767585033 Vminpu=0.1 Vmaxpu=1.9 model=1 kW=1 pf=0.9 Phases=1
New Load.54 bus1=8289.3.4 kV=0.23094010767585033 Vminpu=0.1 Vmaxpu=1.9 model=1 kW=2.7 pf=0.9 Phases=1
New Load.55 bus1=7628.3.4 kV=0.23094010767585033 Vminpu=0.1 Vmaxpu=1.9 model=1 kW=4.6 pf=0.9 Phases=1
New Load.56 bus1=8335.3.4 kV=0.23094010767585033 Vminpu=0.1 Vmaxpu=1.9 model=1 kW=1 pf=0.9 Phases=1
New Load.57 bus1=8336.2.4 kV=0.23094010767585033 Vminpu=0.1 Vmaxpu=1.9 model=1 kW=3.2 pf=0.9 Phases=1
New Load.58 bus1=8378.2.4 kV=0.23094010767585033 Vminpu=0.1 Vmaxpu=1.9 model=1 kW=0.5 pf=0.9 Phases=1
New Load.59 bus1=7390.3.4 kV=0.23094010767585033 Vminpu=0.1 Vmaxpu=1.9 model=1 kW=1 pf=0.9 Phases=1
New Load.60 bus1=8422.1.4 kV=0.23094010767585033 Vminpu=0.1 Vmaxpu=1.9 model=1 kW=2.5 pf=0.9 Phases=1
New Load.61 bus1=8488.1.4 kV=0.23094010767585033 Vminpu=0.1 Vmaxpu=1.9 model=1 kW=2.5 pf=0.9 Phases=1
New Load.62 bus1=7687.1.4 kV=0.23094010767585033 Vminpu=0.1 Vmaxpu=1.9 model=1 kW=5.0 pf=0.9 Phases=1
New Load.63 bus1=7400.1.4 kV=0.23094010767585033 Vminpu=0.1 Vmaxpu=1.9 model=1 kW=5.75 pf=0.9 Phases=1
!New Load.64 bus1=7785.3.4 kV=0.23094010767585033 Vminpu=0.1 Vmaxpu=1.9 model=1 kW=1.8 pf=0.9 Phases=1
New Load.65 bus1=8536.1.4 kV=0.23094010767585033 Vminpu=0.1 Vmaxpu=1.9 model=1 kW=2.5 pf=0.9 Phases=1
New Load.66 bus1=7236.1.4 kV=0.23094010767585033 Vminpu=0.1 Vmaxpu=1.9 model=1 kW=2.25 pf=0.9 Phases=1
New Load.67 bus1=7650.2.4 kV=0.23094010767585033 Vminpu=0.1 Vmaxpu=1.9 model=1 kW=4.8 pf=0.9 Phases=1